C3H4BrCl
NCtclcactv09252617063D 0   0.00000     0.00000
 
  9  8  0  0  0  0  0  0  0  0999 V2000
   -1.6126   -0.0852   -0.0000 Br  0  0  0  0  0  0  0  0  0  0  0  0
    0.1842   -0.6744   -0.0001 C   0  0  0  0  0  0  0  0  0  0  0  0
    1.1621    0.2013   -0.0000 C   0  0  0  0  0  0  0  0  0  0  0  0
    0.8528    1.6762    0.0002 C   0  0  0  0  0  0  0  0  0  0  0  0
    2.8117   -0.3397   -0.0001 Cl  0  0  0  0  0  0  0  0  0  0  0  0
    0.4059   -1.7314    0.0042 H   0  0  0  0  0  0  0  0  0  0  0  0
    0.7782    2.0316    1.0279 H   0  0  0  0  0  0  0  0  0  0  0  0
    1.6492    2.2145   -0.5136 H   0  0  0  0  0  0  0  0  0  0  0  0
   -0.0928    1.8492   -0.5136 H   0  0  0  0  0  0  0  0  0  0  0  0
  1  2  1  0  0  0  0
  2  3  2  0  0  0  0
  3  4  1  0  0  0  0
  3  5  1  0  0  0  0
  2  6  1  0  0  0  0
  4  7  1  0  0  0  0
  4  8  1  0  0  0  0
  4  9  1  0  0  0  0
M  END
$$$$
