
  ACD/Labs09252616322D

  4  3  0  0  1  0  0  0  0  0  1 V2000
   14.3640  -16.8023    0.0000 Cl  0  0  0  0  0  0  0  0  0  0  0  0
   15.5099  -16.1273    0.0000 C   0  0  0  0  0  0  0  0  0  0  0  0
   16.6675  -16.7821    0.0000 C   0  0  0  0  0  0  0  0  0  0  0  0
   15.4983  -14.7973    0.0000 O   0  0  0  0  0  0  0  0  0  0  0  0
  2  1  1  0  0  0  0
  3  2  1  0  0  0  0
  2  4  1  1  0  0  0
M  END
$$$$
